*Heading
** Job name: F100-19 Model name: Model-1
** Generated by: Abaqus/CAE 2017
*Preprint, echo=NO, model=NO, history=NO, contact=NO
**
** PARTS
**
*Part, name=F100
*Node
      1,        1494.,           0.,       -424.5
      2,        1494.,        -80.5,           0.
      3,        620.5,        -80.5,           0.
      4,        620.5,           0.,       -424.5
      5,        1494.,         80.5,           0.
      6,        1611.,         80.5,           0.
      7,        1611.,           0.,       -424.5
      8,        1494.,           0.,         80.5
      9,        1611.,        -80.5,           0.
     10,        1611.,           0.,         80.5
     11,        620.5,         80.5,           0.
     12,        620.5,           0.,         80.5
     13,        1494.,           0.,           0.
     14,        1611.,           0.,           0.
     15,        620.5,           0.,           0.
     16,         498.,        -80.5,           0.
     17,         498.,           0.,           0.
     18,         498.,           0.,       -424.5
     19,         498.,           0.,         80.5
     20,         498.,         80.5,           0.
** ... 3214 like lines cut
*Element, type=S4R
  1,    1,   36,  639,  135
  2,   36,   37,  640,  639
  3,   37,   38,  641,  640
  4,   38,   39,  642,  641
  5,   39,   40,  643,  642
  6,   40,   41,  644,  643
  7,   41,   42,  645,  644
  8,   42,   43,  646,  645
  9,   43,   44,  647,  646
 10,   44,   45,  648,  647
 11,   45,   46,  649,  648
 12,   46,   47,  650,  649
 13,   47,   48,  651,  650
 14,   48,   49,  652,  651
 15,   49,   50,  653,  652
 16,   50,   51,  654,  653
 17,   51,    2,   52,  654
 18,  135,  639,  655,  134
 19,  639,  640,  656,  655
 20,  640,  641,  657,  656
** ... 3230 like lines cut
*Nset, nset=Skin
    1,    2,    3,    4,    5,    6,    7,    8,    9,   10,   11,   12,   16,   18,   19,   20
   21,   22,   23,   24,   26,   27,   28,   30,   31,   32,   34,   35,   36,   37,   38,   39
   40,   41,   42,   43,   44,   45,   46,   47,   48,   49,   50,   51,   52,   53,   54,   55
   56,   57,   58,   59,   60,   61,   62,   63,   64,   65,   66,   67,   68,   69,   70,   71
   72,   73,   74,   75,   76,   77,   78,   79,   80,   81,   82,   83,   84,   85,   86,   87
   88,   89,   90,   91,   92,   93,   94,   95,   96,   97,   98,   99,  100,  101,  102,  103
  104,  105,  106,  107,  108,  109,  110,  111,  112,  113,  114,  115,  116,  117,  118,  119
  120,  121,  122,  123,  124,  125,  126,  127,  128,  129,  130,  131,  132,  133,  134,  135
  136,  137,  138,  139,  140,  141,  142,  143,  144,  145,  146,  147,  148,  149,  150,  151
  152,  153,  154,  155,  156,  157,  158,  159,  160,  161,  162,  163,  164,  165,  166,  167
  168,  169,  170,  171,  172,  173,  174,  175,  176,  177,  178,  179,  180,  181,  182,  183
  184,  185,  186,  187,  188,  189,  190,  191,  192,  193,  194,  195,  196,  197,  198,  199
  200,  201,  202,  203,  204,  205,  206,  207,  208,  209,  210,  211,  212,  213,  214,  215
  216,  217,  218,  219,  220,  221,  222,  223,  224,  225,  226,  227,  228,  229,  230,  231
  232,  233,  234,  235,  236,  237,  238,  239,  240,  241,  242,  243,  244,  245,  246,  247
  248,  249,  250,  251,  252,  253,  254,  255,  256,  257,  258,  259,  260,  261,  262,  263
  264,  265,  266,  267,  318,  319,  320,  321,  328,  329,  330,  331,  332,  333,  334,  335
  336,  337,  338,  339,  340,  341,  342,  343,  344,  345,  346,  347,  348,  349,  350,  351
  352,  353,  354,  355,  356,  357,  358,  359,  360,  361,  362,  363,  364,  365,  366,  367
  368,  369,  370,  371,  372,  373,  374,  375,  376,  377,  378,  379,  380,  381,  382,  383
** ... 162 like lines cut
*Elset, elset=Skin
    1,    2,    3,    4,    5,    6,    7,    8,    9,   10,   11,   12,   13,   14,   15,   16
   17,   18,   19,   20,   21,   22,   23,   24,   25,   26,   27,   28,   29,   30,   31,   32
   33,   34,   35,   36,   37,   38,   39,   40,   41,   42,   43,   44,   45,   46,   47,   48
   49,   50,   51,   52,   53,   54,   55,   56,   57,   58,   59,   60,   61,   62,   63,   64
   65,   66,   67,   68,   69,   70,   71,   72,   73,   74,   75,   76,   77,   78,   79,   80
   81,   82,   83,   84,   85,   86,   87,   88,   89,   90,   91,   92,   93,   94,   95,   96
   97,   98,   99,  100,  101,  102,  103,  104,  105,  106,  107,  108,  109,  110,  111,  112
  113,  114,  115,  116,  117,  118,  119,  120,  121,  122,  123,  124,  125,  126,  127,  128
  129,  130,  131,  132,  133,  134,  135,  136,  137,  138,  139,  140,  141,  142,  143,  144
  145,  146,  147,  148,  149,  150,  151,  152,  153,  154,  155,  156,  157,  158,  159,  160
  161,  162,  163,  164,  165,  166,  167,  168,  169,  170,  171,  172,  173,  174,  175,  176
  177,  178,  179,  180,  181,  182,  183,  184,  185,  186,  187,  188,  189,  190,  191,  192
  193,  194,  195,  196,  197,  198,  199,  200,  201,  202,  203,  204,  205,  206,  207,  208
  209,  210,  211,  212,  213,  214,  215,  216,  217,  218,  219,  220,  221,  222,  223,  224
  225,  226,  227,  228,  229,  230,  231,  232,  233,  234,  235,  236,  237,  238,  239,  240
  241,  242,  243,  244,  245,  246,  247,  248,  249,  250,  251,  252,  253,  254,  255,  256
  257,  258,  259,  260,  261,  262,  263,  264,  265,  266,  267,  268,  269,  270,  271,  272
  273,  274,  275,  276,  277,  278,  279,  280,  281,  282,  283,  284,  285,  286,  287,  288
  289,  290,  291,  292,  293,  294,  295,  296,  297,  298,  299,  300,  301,  302,  303,  304
  305,  306,  307,  308,  309,  310,  311,  312,  313,  314,  315,  316,  317,  318,  319,  320
** ... 159 like lines cut
*Nset, nset=Spar
    2,    3,    5,    6,    9,   11,   13,   14,   15,   16,   17,   20,   21,   23,   25,   26
   28,   29,   31,   33,   34,   52,   53,   54,   55,   56,   57,   58,   59,   60,   61,   62
   63,   64,   65,   66,   67,   68,   69,   70,   71,   72,   73,   74,   75,   76,   77,   78
   79,   80,   81,   82,   83,   84,   85,  152,  153,  154,  155,  180,  181,  182,  183,  196
  197,  198,  199,  200,  201,  202,  203,  204,  205,  206,  207,  208,  209,  210,  211,  212
  213,  214,  215,  216,  217,  218,  219,  220,  221,  222,  223,  224,  225,  226,  227,  228
  229,  268,  269,  270,  271,  272,  273,  274,  275,  276,  277,  278,  279,  280,  281,  282
  283,  284,  285,  286,  287,  288,  289,  290,  291,  292,  293,  294,  295,  296,  297,  298
  299,  300,  301,  302,  303,  304,  305,  306,  307,  308,  309,  310,  311,  312,  313,  314
  315,  316,  317,  318,  319,  320,  321,  322,  323,  324,  325,  326,  327,  396,  397,  398
  399,  400,  401,  402,  403,  428,  429,  430,  431,  440,  441,  442,  443,  444,  445,  446
  447,  452,  453,  454,  455,  456,  457,  458,  459,  460,  474,  475,  476,  477,  478,  479
  480,  481,  482,  483,  484,  485,  486,  487,  488,  489,  490,  491,  492,  493,  494,  495
  569,  570,  571,  572,  593,  594,  595,  596,  597,  598,  599,  600,  601,  602,  603,  604
  609,  610, 1399, 1400, 1401, 1402, 1403, 1404, 1405, 1406, 1407, 1408, 1409, 1410, 1411, 1412
 1413, 1414, 1415, 1416, 1417, 1418, 1419, 1420, 1421, 1422, 1423, 1424, 1425, 1426, 1427, 1428
 1429, 1430, 1431, 1432, 1433, 1434, 1435, 1436, 1437, 1438, 1439, 1440, 1441, 1442, 1443, 1444
 1445, 1446, 1447, 1448, 1449, 1450, 1451, 1452, 1453, 1454, 1455, 1456, 1457, 1458, 1459, 1460
 1461, 1462, 1463, 1464, 1465, 1466, 1467, 1468, 1469, 1470, 1471, 1472, 1473, 1474, 1475, 1476
 1477, 1478, 1479, 1480, 1481, 1482, 1483, 1484, 1485, 1486, 1487, 1488, 1489, 1490, 2411, 2412
** ... 9 like lines cut
*Elset, elset=Spar
  881,  882,  883,  884,  885,  886,  887,  888,  889,  890,  891,  892,  893,  894,  895,  896
  897,  898,  899,  900,  901,  902,  903,  904,  905,  906,  907,  908,  909,  910,  911,  912
  913,  914,  915,  916,  917,  918,  919,  920,  921,  922,  923,  924,  925,  926,  927,  928
  929,  930,  931,  932,  933,  934,  935,  936,  937,  938,  939,  940,  941,  942,  943,  944
  945,  946,  947,  948,  949,  950,  951,  952,  953,  954,  955,  956,  957,  958,  959,  960
  961,  962,  963,  964,  965,  966,  967,  968,  969,  970,  971,  972,  973,  974,  975,  976
  977,  978,  979,  980,  981,  982,  983,  984,  985,  986,  987,  988,  989,  990,  991,  992
  993,  994,  995,  996,  997,  998,  999, 1000, 1001, 1002, 1003, 1004, 1005, 1006, 1007, 1008
 1009, 1010, 1011, 1012, 1013, 1014, 1015, 1016, 1017, 1018, 1019, 1020, 1021, 1022, 1023, 1024
 1025, 1026, 1027, 1028, 1029, 1030, 2131, 2132, 2133, 2134, 2135, 2136, 2137, 2138, 2139, 2140
 2141, 2142, 2143, 2144, 2145, 2146, 2147, 2148, 2149, 2150, 2151, 2152, 2153, 2154, 2155, 2156
 2157, 2158, 2159, 2160, 2161, 2162, 2163, 2164, 2165, 2166, 2167, 2168, 2169, 2170, 2171, 2172
 2173, 2174, 2175, 2176, 2177, 2178, 2179, 2180, 2181, 2182, 2183, 2184, 2185, 2186, 2187, 2188
 2189, 2190, 2191, 2192, 2193, 2194, 2195, 2196, 2197, 2198, 2199, 2200, 2201, 2202, 2203, 2204
 2205, 2206, 2207, 2208, 2209, 2210, 2211, 2212, 2213, 2214, 2215, 2216, 2217, 2218, 2219, 2220
 2221, 2222, 2223, 2224, 2225, 2226, 2227, 2228, 2229, 2230, 2231, 2232, 2233, 2234, 2235, 2236
 2237, 2238, 2239, 2240, 2241, 2242, 2243, 2244, 2245, 2246, 2247, 2248, 2249, 2250, 2326, 2327
 2328, 2329, 2330, 2331, 2332, 2333, 2334, 2335, 2336, 2337, 2338, 2339, 2340, 2341, 2342, 2343
 2344, 2345, 2346, 2347, 2348, 2349, 2350, 2351, 2352, 2353, 2354, 2355, 2356, 2357, 2358, 2359
 2360, 2361, 2362, 2363, 2364, 2365, 2366, 2367, 2368, 2369, 2370, 2821, 2822, 2823, 2824, 2825
** ... 5 like lines cut
** Section: Skin
*Shell Section, elset=Skin, material=Aluminium
1.44, 5
** Section: Spar
*Shell Section, elset=Spar, material=Aluminium
2.4, 5
*End Part
**  
**
** ASSEMBLY
**
*Assembly, name=Assembly
**  
*Instance, name=F100-1, part=F100
*End Instance
**  
*Node
      1,         125.,           0.,           0.
*Node
      2,        375.5,         80.5,         80.5
*Node
      3,         498.,           0.,           0.
*Node
      4,        620.5,         80.5,         80.5
*Node
      5,        1494.,           0.,           0.
*Node
      6,           0.,           0.,       -45.75
*Node
      7,   161.100006,           0.,       -45.75
*Node
      8,   322.200012,           0.,       -45.75
*Node
      9,   483.299988,           0.,       -45.75
*Node
     10,   644.400024,           0.,       -45.75
*Node
     11,        805.5,           0.,       -45.75
*Node
     12,   966.599976,           0.,       -45.75
*Node
     13,   1127.69995,           0.,       -45.75
*Node
     14,   1288.80005,           0.,       -45.75
*Node
     15,   1449.90002,           0.,       -45.75
*Node
     16,        1611.,           0.,       -45.75
*Nset, nset=Hinge_2, instance=F100-1
  16,  17,  18,  19,  20, 322, 323, 328, 329, 330, 331, 332, 333, 334, 335, 336
 337, 338, 339, 340, 341, 342, 343, 376, 377, 378, 379, 380, 381, 382, 383, 384
 385, 386, 387, 388, 389, 390, 391, 392, 393, 394, 395, 424, 425, 426, 427, 440
 441,
*Nset, nset=Point_6, instance=F100-1
  31,  32,  33,  34,  35, 573, 574, 575, 576, 577, 578, 579, 580, 581, 582, 583
 584, 585, 586, 587, 588, 599, 600, 609, 610, 615, 616, 617, 618, 619, 620, 621
 622, 623, 624, 625, 626, 627, 628, 629, 630, 631, 632, 633, 634, 635, 636, 637
 638,
*Nset, nset=Point_7, instance=F100-1
  460,  465,  484,  487,  536, 2535, 2536, 2537, 2538, 2563, 2564, 2757, 2758, 2759, 2760, 2761
 2762, 2763, 2764, 2765, 2766, 2767, 2768, 2769, 2770, 2771, 2772, 2957, 2958, 2959, 2960, 3009
 3010, 3203, 3204, 3205, 3206, 3207, 3208, 3209, 3210, 3211, 3212, 3213, 3214, 3215, 3216, 3217
 3218,
*Nset, nset=Point_8, instance=F100-1
  453,  472,  477,  494,  529, 2507, 2508, 2509, 2510, 2549, 2550, 2645, 2646, 2647, 2648, 2649
 2650, 2651, 2652, 2653, 2654, 2655, 2656, 2657, 2658, 2659, 2660, 2929, 2930, 2931, 2932, 2995
 2996, 3091, 3092, 3093, 3094, 3095, 3096, 3097, 3098, 3099, 3100, 3101, 3102, 3103, 3104, 3105
 3106,
*Nset, nset=Point_9, instance=F100-1
  400,  423,  428,  439,  442, 2195, 2196, 2197, 2198, 2199, 2200, 2201, 2202, 2203, 2204, 2205
 2206, 2207, 2208, 2209, 2210, 2259, 2260, 2261, 2262, 2479, 2480, 2487, 2488, 2489, 2490, 2837
 2838, 2839, 2840, 2841, 2842, 2843, 2844, 2845, 2846, 2847, 2848, 2849, 2850, 2851, 2852, 2969
 2970,
*Nset, nset=Point_10, instance=F100-1
   85,  102,  229,  234,  311, 1167, 1168, 1169, 1170, 1171, 1172, 1173, 1174, 1175, 1176, 1177
 1178, 1179, 1180, 1181, 1182, 1395, 1396, 1397, 1398, 1473, 1474, 2083, 2084, 2085, 2086, 2087
 2088, 2089, 2090, 2091, 2092, 2093, 2094, 2095, 2096, 2097, 2098, 2407, 2408, 2409, 2410, 2477
 2478,
*Nset, nset=Point_11, instance=F100-1
   79,  108,  223,  240,  305, 1071, 1072, 1073, 1074, 1075, 1076, 1077, 1078, 1079, 1080, 1081
 1082, 1083, 1084, 1085, 1086, 1371, 1372, 1373, 1374, 1461, 1462, 1987, 1988, 1989, 1990, 1991
 1992, 1993, 1994, 1995, 1996, 1997, 1998, 1999, 2000, 2001, 2002, 2383, 2384, 2385, 2386, 2465
 2466,
*Nset, nset=Point_12, instance=F100-1
   72,  115,  216,  247,  298,  959,  960,  961,  962,  963,  964,  965,  966,  967,  968,  969
  970,  971,  972,  973,  974, 1343, 1344, 1345, 1346, 1447, 1448, 1875, 1876, 1877, 1878, 1879
 1880, 1881, 1882, 1883, 1884, 1885, 1886, 1887, 1888, 1889, 1890, 2355, 2356, 2357, 2358, 2451
 2452,
*Nset, nset=Point_13, instance=F100-1
   66,  121,  210,  253,  292,  863,  864,  865,  866,  867,  868,  869,  870,  871,  872,  873
  874,  875,  876,  877,  878, 1319, 1320, 1321, 1322, 1435, 1436, 1779, 1780, 1781, 1782, 1783
 1784, 1785, 1786, 1787, 1788, 1789, 1790, 1791, 1792, 1793, 1794, 2331, 2332, 2333, 2334, 2439
 2440,
*Nset, nset=Point_14, instance=F100-1
   59,  128,  203,  260,  285,  751,  752,  753,  754,  755,  756,  757,  758,  759,  760,  761
  762,  763,  764,  765,  766, 1291, 1292, 1293, 1294, 1421, 1422, 1667, 1668, 1669, 1670, 1671
 1672, 1673, 1674, 1675, 1676, 1677, 1678, 1679, 1680, 1681, 1682, 2303, 2304, 2305, 2306, 2425
 2426,
*Nset, nset=Point_15, instance=F100-1
   53,  134,  197,  266,  279,  655,  656,  657,  658,  659,  660,  661,  662,  663,  664,  665
  666,  667,  668,  669,  670, 1267, 1268, 1269, 1270, 1409, 1410, 1571, 1572, 1573, 1574, 1575
 1576, 1577, 1578, 1579, 1580, 1581, 1582, 1583, 1584, 1585, 1586, 2279, 2280, 2281, 2282, 2413
 2414,
*Nset, nset=Point_16, instance=F100-1
   6,   7,   9,  10,  14, 156, 157, 158, 159, 160, 161, 162, 163, 164, 165, 166
 167, 168, 169, 170, 171, 184, 185, 186, 187, 274, 275, 314, 315, 364, 365, 366
 367, 496, 497, 498, 499, 500, 501, 502, 503, 504, 505, 506, 507, 508, 509, 510
 511,
*Nset, nset=Rib_A, instance=F100-1
  26,  27,  28,  29,  30, 461, 462, 463, 464, 485, 486, 537, 538, 539, 540, 541
 542, 543, 544, 545, 546, 547, 548, 549, 550, 551, 552, 553, 554, 555, 556, 557
 558, 559, 560, 561, 562, 563, 564, 565, 566, 567, 568, 593, 594, 605, 606, 607
 608,
*Nset, nset=Rib_B, instance=F100-1
  21,  22,  23,  24,  25, 404, 405, 406, 407, 408, 409, 410, 411, 412, 413, 414
 415, 416, 417, 418, 419, 432, 433, 434, 435, 446, 447, 448, 449, 450, 451, 474
 475, 512, 513, 514, 515, 516, 517, 518, 519, 520, 521, 522, 523, 524, 525, 526
 527,
*Nset, nset=Rib_C, instance=F100-1
   3,   4,  11,  12,  15,  86,  87,  88,  89,  90,  91,  92,  93,  94,  95,  96
  97,  98,  99, 100, 101, 230, 231, 232, 233, 312, 313, 316, 317, 348, 349, 350
 351, 352, 353, 354, 355, 356, 357, 358, 359, 360, 361, 362, 363, 368, 369, 370
 371,
*Nset, nset=Rib_D, instance=F100-1
   1,   2,   5,   8,  13,  36,  37,  38,  39,  40,  41,  42,  43,  44,  45,  46
  47,  48,  49,  50,  51, 136, 137, 138, 139, 140, 141, 142, 143, 144, 145, 146
 147, 148, 149, 150, 151, 176, 177, 178, 179, 192, 193, 194, 195, 268, 269, 276
 277,
*Nset, nset=Set-33
 1,
*Nset, nset=Set-34
 3,
*Nset, nset=Set-35
 5,
*Nset, nset=Set-36
 2,
*Nset, nset=Set-37
 4,
*Nset, nset=Set-38
 6,
*Nset, nset=Set-39
 16,
*Nset, nset=Set-40
 7,
*Nset, nset=Set-41
 8,
*Nset, nset=Set-42
 9,
*Nset, nset=Set-43
 10,
*Nset, nset=Set-44
 11,
*Nset, nset=Set-45
 12,
*Nset, nset=Set-46
 13,
*Nset, nset=Set-47
 14,
*Nset, nset=Set-48
 15,
*Nset, nset=Set-49
 2,
*Nset, nset=Set-50
 4,
*Nset, nset=Set-51
 6,
*Nset, nset=Set-52
** ... 19 like lines cut
*Nset, nset=m_Set-17
 1,
*Nset, nset=m_Set-18
 2,
*Nset, nset=m_Set-19
 3,
*Nset, nset=m_Set-20
 4,
*Nset, nset=m_Set-21
 5,
*Nset, nset=m_Set-22
 6,
*Nset, nset=m_Set-23
 7,
*Nset, nset=m_Set-24
 8,
*Nset, nset=m_Set-25
 9,
*Nset, nset=m_Set-26
 10,
*Nset, nset=m_Set-27
 11,
*Nset, nset=m_Set-28
 12,
*Nset, nset=m_Set-29
 13,
*Nset, nset=m_Set-30
 14,
*Nset, nset=m_Set-31
 15,
*Nset, nset=m_Set-32
 16,
*Surface, type=NODE, name=Rib_A_CNS_, internal
Rib_A, 1.
*Surface, type=NODE, name=Rib_B_CNS_, internal
Rib_B, 1.
*Surface, type=NODE, name=Hinge_2_CNS_, internal
Hinge_2, 1.
*Surface, type=NODE, name=Rib_C_CNS_, internal
Rib_C, 1.
*Surface, type=NODE, name=Rib_D_CNS_, internal
Rib_D, 1.
*Surface, type=NODE, name=Point_6_CNS_, internal
Point_6, 1.
*Surface, type=NODE, name=Point_7_CNS_, internal
Point_7, 1.
*Surface, type=NODE, name=Point_8_CNS_, internal
Point_8, 1.
*Surface, type=NODE, name=Point_9_CNS_, internal
Point_9, 1.
*Surface, type=NODE, name=Point_10_CNS_, internal
Point_10, 1.
*Surface, type=NODE, name=Point_11_CNS_, internal
Point_11, 1.
*Surface, type=NODE, name=Point_12_CNS_, internal
Point_12, 1.
*Surface, type=NODE, name=Point_13_CNS_, internal
Point_13, 1.
*Surface, type=NODE, name=Point_14_CNS_, internal
Point_14, 1.
*Surface, type=NODE, name=Point_15_CNS_, internal
Point_15, 1.
*Surface, type=NODE, name=Point_16_CNS_, internal
Point_16, 1.
** Constraint: Constraint-1
*MPC
BEAM, Rib_A, m_Set-17
** Constraint: Constraint-2
*MPC
BEAM, Rib_B, m_Set-18
** Constraint: Constraint-3
*MPC
BEAM, Hinge_2, m_Set-19
** Constraint: Constraint-4
*MPC
BEAM, Rib_C, m_Set-20
** Constraint: Constraint-5
*MPC
BEAM, Rib_D, m_Set-21
** Constraint: Constraint-6
*MPC
BEAM, Point_6, m_Set-22
** Constraint: Constraint-7
*MPC
BEAM, Point_7, m_Set-23
** Constraint: Constraint-8
*MPC
BEAM, Point_8, m_Set-24
** Constraint: Constraint-9
*MPC
BEAM, Point_9, m_Set-25
** Constraint: Constraint-10
*MPC
BEAM, Point_10, m_Set-26
** Constraint: Constraint-11
*MPC
BEAM, Point_11, m_Set-27
** Constraint: Constraint-12
*MPC
BEAM, Point_12, m_Set-28
** Constraint: Constraint-13
*MPC
BEAM, Point_13, m_Set-29
** Constraint: Constraint-14
*MPC
BEAM, Point_14, m_Set-30
** Constraint: Constraint-15
*MPC
BEAM, Point_15, m_Set-31
** Constraint: Constraint-16
*MPC
BEAM, Point_16, m_Set-32
*End Assembly
** 
** MATERIALS
** 
*Material, name=Aluminium
*Elastic
 73.1, 0.33
** 
** BOUNDARY CONDITIONS
** 
** Name: Hinge_1 Type: Displacement/Rotation
*Boundary
Set-33, 2, 2
Set-33, 3, 3
** Name: Hinge_2 Type: Displacement/Rotation
*Boundary
Set-34, 1, 1
Set-34, 2, 2
Set-34, 3, 3
** Name: Hinge_3 Type: Displacement/Rotation
*Boundary
Set-35, 2, 2
Set-35, 3, 3
** ----------------------------------------------------------------
** 
** STEP: RotateUp
** 
*Step, name=RotateUp, nlgeom=NO
*Static
1., 1., 1e-05, 1.
** 
** BOUNDARY CONDITIONS
** 
** Name: Hinge_1 Type: Displacement/Rotation
*Boundary
Set-33, 2, 2, 3.89
** Name: Hinge_2 Type: Displacement/Rotation
*Boundary
Set-34, 4, 4, 0.5236
** Name: Hinge_3 Type: Displacement/Rotation
*Boundary
Set-35, 2, 2, 12.45
** 
** OUTPUT REQUESTS
** 
*Restart, write, frequency=0
** 
** FIELD OUTPUT: F-Output-1
** 
*Output, field
*Node Output
RF, U
*Element Output, directions=YES
MISES, 
** 
** HISTORY OUTPUT: H-Output-1
** 
*Output, history, variable=PRESELECT
*End Step
** ----------------------------------------------------------------
** 
** STEP: Jam1
** 
*Step, name=Jam1, nlgeom=NO
*Static
1., 1., 1e-05, 1.
** 
** BOUNDARY CONDITIONS
** 
** Name: Actuator_1 Type: Displacement/Rotation
*Boundary, fixed
Set-36, 3, 3
** 
** LOADS
** 
** Name: Actuator_2   Type: Concentrated force
*Cload
Set-37, 3, -49.22
** Name: Load-2   Type: Concentrated force
*Cload
Set-38, 2, -0.311
** Name: Load-3   Type: Concentrated force
*Cload
Set-39, 2, -0.311
** Name: Load-4   Type: Concentrated force
*Cload
Set-40, 2, -0.621
** Name: Load-5   Type: Concentrated force
*Cload
Set-41, 2, -0.621
** Name: Load-6   Type: Concentrated force
*Cload
Set-42, 2, -0.621
** Name: Load-7   Type: Concentrated force
*Cload
Set-43, 2, -0.621
** Name: Load-8   Type: Concentrated force
*Cload
Set-44, 2, -0.621
** Name: Load-9   Type: Concentrated force
*Cload
Set-45, 2, -0.621
** Name: Load-10   Type: Concentrated force
*Cload
Set-46, 2, -0.621
** Name: Load-11   Type: Concentrated force
*Cload
Set-47, 2, -0.621
** Name: Load-12   Type: Concentrated force
*Cload
Set-48, 2, -0.621
** 
** OUTPUT REQUESTS
** 
*Restart, write, frequency=0
** 
** FIELD OUTPUT: F-Output-1
** 
*Output, field
*Node Output
RF, U
*Element Output, directions=YES
MISES, 
** 
** HISTORY OUTPUT: H-Output-1
** 
*Output, history, variable=PRESELECT
*End Step
** ----------------------------------------------------------------
** 
** STEP: RotateDown
** 
*Step, name=RotateDown, nlgeom=NO
*Static
1., 1., 1e-05, 1.
** 
** BOUNDARY CONDITIONS
** 
** Name: Actuator_1 Type: Displacement/Rotation
*Boundary, op=NEW
** Name: Hinge_1 Type: Displacement/Rotation
*Boundary, op=NEW
Set-33, 2, 2, 3.89
Set-33, 3, 3
** Name: Hinge_2 Type: Displacement/Rotation
*Boundary, op=NEW
Set-34, 1, 1
Set-34, 2, 2
Set-34, 3, 3
Set-34, 4, 4, -0.2793
** Name: Hinge_3 Type: Displacement/Rotation
*Boundary, op=NEW
Set-35, 2, 2, 12.45
Set-35, 3, 3
** 
** LOADS
** 
** Name: Actuator_2   Type: Concentrated force
*Cload, op=NEW
** Name: Load-2   Type: Concentrated force
*Cload, op=NEW
** Name: Load-3   Type: Concentrated force
*Cload, op=NEW
** Name: Load-4   Type: Concentrated force
*Cload, op=NEW
** Name: Load-5   Type: Concentrated force
*Cload, op=NEW
** Name: Load-6   Type: Concentrated force
*Cload, op=NEW
** Name: Load-7   Type: Concentrated force
*Cload, op=NEW
** Name: Load-8   Type: Concentrated force
*Cload, op=NEW
** Name: Load-9   Type: Concentrated force
*Cload, op=NEW
** Name: Load-10   Type: Concentrated force
*Cload, op=NEW
** Name: Load-11   Type: Concentrated force
*Cload, op=NEW
** Name: Load-12   Type: Concentrated force
*Cload, op=NEW
** 
** OUTPUT REQUESTS
** 
*Restart, write, frequency=0
** 
** FIELD OUTPUT: F-Output-1
** 
*Output, field
*Node Output
RF, U
*Element Output, directions=YES
MISES, 
** 
** HISTORY OUTPUT: H-Output-1
** 
*Output, history, variable=PRESELECT
*End Step
** ----------------------------------------------------------------
** 
** STEP: Jam2
** 
*Step, name=Jam2, nlgeom=NO
*Static
1., 1., 1e-05, 1.
** 
** BOUNDARY CONDITIONS
** 
** Name: BC-5 Type: Displacement/Rotation
*Boundary, fixed
Set-49, 3, 3
** 
** LOADS
** 
** Name: Load-13   Type: Concentrated force
*Cload
Set-50, 3, 49.22
** Name: Load-14   Type: Concentrated force
*Cload
Set-51, 2, 0.207
** Name: Load-15   Type: Concentrated force
*Cload
Set-52, 2, 0.207
** Name: Load-16   Type: Concentrated force
*Cload
Set-53, 2, 0.414
** Name: Load-17   Type: Concentrated force
*Cload
Set-54, 2, 0.414
** Name: Load-18   Type: Concentrated force
*Cload
Set-55, 2, 0.414
** Name: Load-19   Type: Concentrated force
*Cload
Set-56, 2, 0.414
** Name: Load-20   Type: Concentrated force
*Cload
Set-57, 2, 0.414
** Name: Load-21   Type: Concentrated force
*Cload
Set-58, 2, 0.414
** Name: Load-22   Type: Concentrated force
*Cload
Set-59, 2, 0.414
** Name: Load-23   Type: Concentrated force
*Cload
Set-60, 2, 0.414
** Name: Load-24   Type: Concentrated force
*Cload
Set-61, 2, 0.414
** 
** OUTPUT REQUESTS
** 
*Restart, write, frequency=0
** 
** FIELD OUTPUT: F-Output-1
** 
*Output, field
*Node Output
RF, U
*Element Output, directions=YES
MISES, 
** 
** HISTORY OUTPUT: H-Output-1
** 
*Output, history, variable=PRESELECT
*End Step
